Circuit: * Z:\home\oleksandr\workspace\emat\ltspice\amplifier.asc

Direct Newton iteration for .op point succeeded.

Date: Sun Mar 17 18:12:40 2019
Total elapsed time: 0.104 seconds.

tnom = 27
temp = 27
method = modified trap
totiter = 3793
traniter = 3766
tranpoints = 1110
accept = 790
rejected = 320
matrix size = 100
fillins = 129
solver = Normal
Matrix Compiler1: 13.18 KB object code size  2.7/2.1/[1.4]
Matrix Compiler2: 10.89 KB object code size  2.6/1.9/[1.0]

