Circuit: * Z:\home\oleksandr\workspace\emat\ltspice\amplifier_denis_bez_emit_povt.asc

Direct Newton iteration for .op point succeeded.

Date: Sat May 04 17:09:31 2019
Total elapsed time: 0.063 seconds.

tnom = 27
temp = 27
method = trap
totiter = 4
traniter = 0
tranpoints = 0
accept = 0
rejected = 0
matrix size = 13
fillins = 0
solver = Normal
Matrix Compiler1:      42 opcodes
Matrix Compiler2: 993 bytes object code size
