Circuit: * Z:\home\oleksandr\workspace\emat\ltspice\amplifier_denis.asc

WARNING: Node N003 is floating.

WARNING: Less than two connections to node N003.  This node is used by R7.
WARNING: Less than two connections to node NC_02.  This node is used by E:U2:NOISE.
Instance "m:m1:1": Width narrower than recommended for a level 3 MOSFET.
Early termination of direct N-R iteration.
Direct Newton iteration failed to find .op point.  (Use ".option noopiter" to skip.)
Starting Gmin stepping
Gmin = 10
Gmin = 1.07374
Gmin = 0.115292
Gmin = 0.0123794
Gmin = 0.00132923
Gmin = 0.000142725
Gmin = 1.5325e-005
Gmin = 1.6455e-006
Gmin = 1.76685e-007
Gmin = 1.89714e-008
Gmin = 2.03704e-009
Gmin = 2.18725e-010
Gmin = 2.34854e-011
Gmin = 2.52173e-012
Gmin = 2.70769e-013
Gmin = 0
Gmin stepping succeeded in finding the operating point.

Ignoring empty pin current: Ix(u1:1)
Ignoring empty pin current: Ix(u1:150)
Ignoring empty pin current: Ix(u2:1)
Ignoring empty pin current: Ix(u2:150)
Ignoring empty pin current: Ix(u1:1)
Ignoring empty pin current: Ix(u1:150)
Ignoring empty pin current: Ix(u2:1)
Ignoring empty pin current: Ix(u2:150)
Heightened Def Con from 1.95312e-012 to 1.00195e-009

Date: Sat May 04 16:34:36 2019
Total elapsed time: 0.829 seconds.

tnom = 27
temp = 27
method = modified trap
totiter = 9734
traniter = 9231
tranpoints = 4514
accept = 2968
rejected = 1547
matrix size = 257
fillins = 877
solver = Normal
Thread vector: 22.2/12.0[8] 18.8/5.6[8] 12.3/5.5[8] 1.8/2.5[1]  2592/500
Matrix Compiler1: 79.33 KB object code size  18.7/9.7/[4.9]
Matrix Compiler2: 41.66 KB object code size  9.4/8.0/[3.0]

