Circuit: * Z:\home\oleksandr\workspace\emat\ltspice\filter_bessel_band_pass.asc

Direct Newton iteration for .op point succeeded.

Date: Sun May 05 12:39:57 2019
Total elapsed time: 0.061 seconds.

tnom = 27
temp = 27
method = trap
totiter = 4
traniter = 0
tranpoints = 0
accept = 0
rejected = 0
matrix size = 13
fillins = 0
solver = Normal
Matrix Compiler1:      42 opcodes
Matrix Compiler2: 993 bytes object code size
